<?xml version="1.0" encoding="UTF-8"?>

<!-- generated on 2025-12-04T10:09:05.545595+00:00 by Eclipse SUMO netconvert v1_25_0+0150-04664dcec11
<netconvertConfiguration xmlns:xsi="http://www.w3.org/2001/XMLSchema-instance" xsi:noNamespaceSchemaLocation="http://sumo.dlr.de/xsd/netconvertConfiguration.xsd">

    <input>
        <node-files value="highway.nod.xml"/>
        <edge-files value="highway.edg.xml"/>
    </input>

    <output>
        <output-file value="highway.net.xml"/>
    </output>

</netconvertConfiguration>
-->

<net version="1.20" junctionCornerDetail="5" limitTurnSpeed="5.50" xmlns:xsi="http://www.w3.org/2001/XMLSchema-instance" xsi:noNamespaceSchemaLocation="http://sumo.dlr.de/xsd/net_file.xsd">

    <location netOffset="0.00,100.00" convBoundary="0.00,0.00,2000.00,100.00" origBoundary="0.00,-100.00,2000.00,0.00" projParameter="!"/>

    <edge id=":n1_0" function="internal">
        <lane id=":n1_0_0" index="0" speed="6.51" length="9.03" shape="501.60,86.40 501.95,88.85 503.00,90.60 504.75,91.65 507.20,92.00"/>
    </edge>
    <edge id=":n1_1" function="internal">
        <lane id=":n1_1_0" index="0" speed="33.33" length="11.20" shape="496.00,92.00 507.20,92.00"/>
        <lane id=":n1_1_1" index="1" speed="33.33" length="11.20" shape="496.00,95.20 507.20,95.20"/>
        <lane id=":n1_1_2" index="2" speed="33.33" length="11.20" shape="496.00,98.40 507.20,98.40"/>
    </edge>
    <edge id=":n2_0" function="internal">
        <lane id=":n2_0_0" index="0" speed="33.33" length="0.10" shape="1000.00,92.00 1000.00,92.00"/>
        <lane id=":n2_0_1" index="1" speed="33.33" length="0.10" shape="1000.00,95.20 1000.00,95.20"/>
        <lane id=":n2_0_2" index="2" speed="33.33" length="0.10" shape="1000.00,98.40 1000.00,98.40"/>
    </edge>
    <edge id=":n3_0" function="internal">
        <lane id=":n3_0_0" index="0" speed="6.51" length="9.03" shape="1492.80,92.00 1495.25,91.65 1497.00,90.60 1498.05,88.85 1498.40,86.40"/>
    </edge>
    <edge id=":n3_1" function="internal">
        <lane id=":n3_1_0" index="0" speed="33.33" length="11.20" shape="1492.80,92.00 1504.00,92.00"/>
        <lane id=":n3_1_1" index="1" speed="33.33" length="11.20" shape="1492.80,95.20 1504.00,95.20"/>
        <lane id=":n3_1_2" index="2" speed="33.33" length="11.20" shape="1492.80,98.40 1504.00,98.40"/>
    </edge>

    <edge id="highway1" from="entry" to="n1" priority="3">
        <lane id="highway1_0" index="0" speed="33.33" length="496.00" shape="0.00,92.00 496.00,92.00"/>
        <lane id="highway1_1" index="1" speed="33.33" length="496.00" shape="0.00,95.20 496.00,95.20"/>
        <lane id="highway1_2" index="2" speed="33.33" length="496.00" shape="0.00,98.40 496.00,98.40"/>
    </edge>
    <edge id="highway2" from="n1" to="n2" priority="3">
        <lane id="highway2_0" index="0" speed="33.33" length="492.80" shape="507.20,92.00 1000.00,92.00"/>
        <lane id="highway2_1" index="1" speed="33.33" length="492.80" shape="507.20,95.20 1000.00,95.20"/>
        <lane id="highway2_2" index="2" speed="33.33" length="492.80" shape="507.20,98.40 1000.00,98.40"/>
    </edge>
    <edge id="highway3" from="n2" to="n3" priority="3">
        <lane id="highway3_0" index="0" speed="33.33" length="492.80" shape="1000.00,92.00 1492.80,92.00"/>
        <lane id="highway3_1" index="1" speed="33.33" length="492.80" shape="1000.00,95.20 1492.80,95.20"/>
        <lane id="highway3_2" index="2" speed="33.33" length="492.80" shape="1000.00,98.40 1492.80,98.40"/>
    </edge>
    <edge id="highway4" from="n3" to="exit" priority="3">
        <lane id="highway4_0" index="0" speed="33.33" length="496.00" shape="1504.00,92.00 2000.00,92.00"/>
        <lane id="highway4_1" index="1" speed="33.33" length="496.00" shape="1504.00,95.20 2000.00,95.20"/>
        <lane id="highway4_2" index="2" speed="33.33" length="496.00" shape="1504.00,98.40 2000.00,98.40"/>
    </edge>
    <edge id="offramp" from="n3" to="offramp1" priority="2">
        <lane id="offramp_0" index="0" speed="22.22" length="86.40" shape="1498.40,86.40 1498.40,0.00"/>
    </edge>
    <edge id="onramp" from="onramp1" to="n1" priority="2">
        <lane id="onramp_0" index="0" speed="22.22" length="86.40" shape="501.60,0.00 501.60,86.40"/>
    </edge>

    <junction id="entry" type="dead_end" x="0.00" y="100.00" incLanes="" intLanes="" shape="0.00,100.00 0.00,90.40"/>
    <junction id="exit" type="dead_end" x="2000.00" y="100.00" incLanes="highway4_0 highway4_1 highway4_2" intLanes="" shape="2000.00,90.40 2000.00,100.00"/>
    <junction id="n1" type="priority" x="500.00" y="100.00" incLanes="onramp_0 highway1_0 highway1_1 highway1_2" intLanes=":n1_0_0 :n1_1_0 :n1_1_1 :n1_1_2" shape="507.20,100.00 507.20,90.40 504.98,89.96 504.20,89.40 503.64,88.62 503.31,87.62 503.20,86.40 500.00,86.40 499.56,88.62 499.00,89.40 498.22,89.96 497.22,90.29 496.00,90.40 496.00,100.00">
        <request index="0" response="1110" foes="1110" cont="0"/>
        <request index="1" response="0000" foes="0001" cont="0"/>
        <request index="2" response="0000" foes="0001" cont="0"/>
        <request index="3" response="0000" foes="0001" cont="0"/>
    </junction>
    <junction id="n2" type="priority" x="1000.00" y="100.00" incLanes="highway2_0 highway2_1 highway2_2" intLanes=":n2_0_0 :n2_0_1 :n2_0_2" shape="1000.00,100.00 1000.00,90.40 1000.00,100.00">
        <request index="0" response="000" foes="000" cont="0"/>
        <request index="1" response="000" foes="000" cont="0"/>
        <request index="2" response="000" foes="000" cont="0"/>
    </junction>
    <junction id="n3" type="priority" x="1500.00" y="100.00" incLanes="highway3_0 highway3_1 highway3_2" intLanes=":n3_0_0 :n3_1_0 :n3_1_1 :n3_1_2" shape="1504.00,100.00 1504.00,90.40 1501.78,89.96 1501.00,89.40 1500.44,88.62 1500.11,87.62 1500.00,86.40 1496.80,86.40 1496.36,88.62 1495.80,89.40 1495.02,89.96 1494.02,90.29 1492.80,90.40 1492.80,100.00">
        <request index="0" response="0000" foes="0000" cont="0"/>
        <request index="1" response="0000" foes="0000" cont="0"/>
        <request index="2" response="0000" foes="0000" cont="0"/>
        <request index="3" response="0000" foes="0000" cont="0"/>
    </junction>
    <junction id="offramp1" type="dead_end" x="1500.00" y="0.00" incLanes="offramp_0" intLanes="" shape="1496.80,0.00 1500.00,0.00"/>
    <junction id="onramp1" type="dead_end" x="500.00" y="0.00" incLanes="" intLanes="" shape="500.00,0.00 503.20,0.00"/>

    <connection from="highway1" to="highway2" fromLane="0" toLane="0" via=":n1_1_0" dir="s" state="M"/>
    <connection from="highway1" to="highway2" fromLane="1" toLane="1" via=":n1_1_1" dir="s" state="M"/>
    <connection from="highway1" to="highway2" fromLane="2" toLane="2" via=":n1_1_2" dir="s" state="M"/>
    <connection from="highway2" to="highway3" fromLane="0" toLane="0" via=":n2_0_0" dir="s" state="M"/>
    <connection from="highway2" to="highway3" fromLane="1" toLane="1" via=":n2_0_1" dir="s" state="M"/>
    <connection from="highway2" to="highway3" fromLane="2" toLane="2" via=":n2_0_2" dir="s" state="M"/>
    <connection from="highway3" to="offramp" fromLane="0" toLane="0" via=":n3_0_0" dir="r" state="M"/>
    <connection from="highway3" to="highway4" fromLane="0" toLane="0" via=":n3_1_0" dir="s" state="M"/>
    <connection from="highway3" to="highway4" fromLane="1" toLane="1" via=":n3_1_1" dir="s" state="M"/>
    <connection from="highway3" to="highway4" fromLane="2" toLane="2" via=":n3_1_2" dir="s" state="M"/>
    <connection from="onramp" to="highway2" fromLane="0" toLane="0" via=":n1_0_0" dir="r" state="m"/>

    <connection from=":n1_0" to="highway2" fromLane="0" toLane="0" dir="r" state="M"/>
    <connection from=":n1_1" to="highway2" fromLane="0" toLane="0" dir="s" state="M"/>
    <connection from=":n1_1" to="highway2" fromLane="1" toLane="1" dir="s" state="M"/>
    <connection from=":n1_1" to="highway2" fromLane="2" toLane="2" dir="s" state="M"/>
    <connection from=":n2_0" to="highway3" fromLane="0" toLane="0" dir="s" state="M"/>
    <connection from=":n2_0" to="highway3" fromLane="1" toLane="1" dir="s" state="M"/>
    <connection from=":n2_0" to="highway3" fromLane="2" toLane="2" dir="s" state="M"/>
    <connection from=":n3_0" to="offramp" fromLane="0" toLane="0" dir="r" state="M"/>
    <connection from=":n3_1" to="highway4" fromLane="0" toLane="0" dir="s" state="M"/>
    <connection from=":n3_1" to="highway4" fromLane="1" toLane="1" dir="s" state="M"/>
    <connection from=":n3_1" to="highway4" fromLane="2" toLane="2" dir="s" state="M"/>

</net>
