<?xml version="1.0" encoding="UTF-8"?>
<!-- highway.nod.xml - Network nodes -->
<nodes xmlns:xsi="http://www.w3.org/2001/XMLSchema-instance" xsi:noNamespaceSchemaLocation="http://sumo.dlr.de/xsd/nodes_file.xsd">
    <node id="entry" x="0.0" y="0.0" type="priority"/>
    <node id="n1" x="500.0" y="0.0" type="priority"/>
    <node id="n2" x="1000.0" y="0.0" type="priority"/>
    <node id="n3" x="1500.0" y="0.0" type="priority"/>
    <node id="exit" x="2000.0" y="0.0" type="priority"/>
    <node id="onramp1" x="500.0" y="-100.0" type="priority"/>
    <node id="offramp1" x="1500.0" y="-100.0" type="priority"/>
</nodes>
