<?xml version="1.0" encoding="UTF-8"?>

<!-- generated on 2025-12-05 21:51:11.260699 by Eclipse SUMO osmWebWizard.py v1.25.0.post150
<configuration>
    <net-file value="/home/jeanhuit/Sumo/2025-12-05-21-50-47/osm.net.xml.gz"/>
    <output-trip-file value="/home/jeanhuit/Sumo/2025-12-05-21-50-47/osm.bus.trips.xml"/>
    <route-file value="/home/jeanhuit/Sumo/2025-12-05-21-50-47/osm.bus.rou.xml"/>
    <prefix value="bus"/>
    <trip-attributes value="departLane=&quot;best&quot;"/>
    <fringe-start-attributes value="departSpeed=&quot;max&quot;"/>
    <vehicle-class value="bus"/>
    <fringe-factor value="5"/>
    <edge-permission value="bus"/>
    <via-edge-types value="highway.motorway,highway.motorway_link,highway.trunk_link,highway.primary_link,highway.secondary_link,highway.tertiary_link"/>
    <min-distance value="600.0"/>
    <min-distance.fringe value="10.0"/>
    <remove-loops value="True"/>
    <end value="300.0"/>
    <insertion-density value="4.0"/>
</configuration>
-->

<routes xmlns:xsi="http://www.w3.org/2001/XMLSchema-instance" xsi:noNamespaceSchemaLocation="http://sumo.dlr.de/xsd/routes_file.xsd">
    <vType id="bus_bus" vClass="bus"/>
    <trip id="bus0" depart="0.00" from="1429856612" to="-12209187#13" departLane="best" type="bus_bus"/>
    <trip id="bus1" depart="6.82" from="-424279998" to="-448564836" departLane="best" type="bus_bus" departSpeed="max"/>
    <trip id="bus2" depart="13.64" from="518078607#4" to="-13685736#6" departLane="best" type="bus_bus"/>
    <trip id="bus3" depart="20.46" from="-172917702" to="13685264#5" departLane="best" type="bus_bus" departSpeed="max"/>
    <trip id="bus4" depart="27.28" from="-172917703" to="13687354#1" departLane="best" type="bus_bus" departSpeed="max"/>
    <trip id="bus5" depart="34.11" from="510503535#0" to="-1118306629#1" departLane="best" type="bus_bus" departSpeed="max"/>
    <trip id="bus6" depart="40.93" from="510503535#0" to="345632650" departLane="best" type="bus_bus" departSpeed="max"/>
    <trip id="bus7" depart="47.75" from="-515402758#0" to="-13978518" departLane="best" type="bus_bus"/>
    <trip id="bus8" depart="54.57" from="583364994#0" to="1071928616#0" departLane="best" type="bus_bus" departSpeed="max"/>
    <trip id="bus9" depart="61.39" from="-13503928" to="-13685772#7" departLane="best" type="bus_bus" departSpeed="max"/>
    <trip id="bus10" depart="68.21" from="510503535#0" to="424279998" departLane="best" type="bus_bus" departSpeed="max"/>
    <trip id="bus11" depart="75.03" from="13685497#1" to="637206315#1" departLane="best" type="bus_bus"/>
    <trip id="bus12" depart="81.85" from="-609915761#1" to="13686254#0" departLane="best" type="bus_bus"/>
    <trip id="bus13" depart="88.68" from="513672317#3" to="1439354539" departLane="best" type="bus_bus"/>
    <trip id="bus14" depart="95.50" from="515102854#2" to="13686709#0" departLane="best" type="bus_bus"/>
    <trip id="bus15" depart="102.32" from="352410323#0" to="-13499977#2" departLane="best" type="bus_bus"/>
    <trip id="bus16" depart="109.14" from="-172917708" to="-524604558#5" departLane="best" type="bus_bus" departSpeed="max"/>
    <trip id="bus17" depart="115.96" from="1429856608" to="11172810#0" departLane="best" type="bus_bus"/>
    <trip id="bus18" depart="122.78" from="-526590660#1" to="-408573196#3" departLane="best" type="bus_bus"/>
    <trip id="bus19" depart="129.60" from="-362157722#2" to="525669424" departLane="best" type="bus_bus"/>
    <trip id="bus20" depart="136.42" from="153007489#0" to="1429856611" departLane="best" type="bus_bus" departSpeed="max"/>
    <trip id="bus21" depart="143.24" from="-13686591#4" to="424279998" departLane="best" type="bus_bus"/>
    <trip id="bus22" depart="150.07" from="-13686500#4" to="11662794#3" departLane="best" type="bus_bus"/>
    <trip id="bus23" depart="156.89" from="685745213#0" to="172917699#4" departLane="best" type="bus_bus"/>
    <trip id="bus24" depart="163.71" from="13685772#0" to="318612424#1" departLane="best" type="bus_bus" departSpeed="max"/>
    <trip id="bus25" depart="170.53" from="514454856#0" to="447728026#0" departLane="best" type="bus_bus" departSpeed="max"/>
    <trip id="bus26" depart="177.35" from="-448870864#1" to="-522486260#1" departLane="best" type="bus_bus"/>
    <trip id="bus27" depart="184.17" from="-172917699#5" to="525669426#8" departLane="best" type="bus_bus" departSpeed="max"/>
    <trip id="bus28" depart="190.99" from="515663231#0" to="-637169814#4" departLane="best" type="bus_bus" departSpeed="max"/>
    <trip id="bus29" depart="197.81" from="524500955" to="125989143#0" departLane="best" type="bus_bus" departSpeed="max"/>
    <trip id="bus30" depart="204.63" from="-356777697" to="-514981268#3" departLane="best" type="bus_bus" departSpeed="max"/>
    <trip id="bus31" depart="211.46" from="13685772#6" to="-518078607#1" departLane="best" type="bus_bus"/>
    <trip id="bus32" depart="218.28" from="13686358#0" to="522486247#2" departLane="best" type="bus_bus"/>
    <trip id="bus33" depart="225.10" from="-71186683#1" to="-447728026#1" departLane="best" type="bus_bus"/>
    <trip id="bus34" depart="231.92" from="-13685443#6" to="153007489#3" departLane="best" type="bus_bus"/>
    <trip id="bus35" depart="238.74" from="448870864#0" to="1230769300" departLane="best" type="bus_bus"/>
    <trip id="bus36" depart="245.56" from="-1259199236" to="11666900#1" departLane="best" type="bus_bus" departSpeed="max"/>
    <trip id="bus37" depart="252.38" from="-1109043806" to="379600565#0" departLane="best" type="bus_bus" departSpeed="max"/>
    <trip id="bus38" depart="259.20" from="-362157722#2" to="172917699#5" departLane="best" type="bus_bus"/>
    <trip id="bus39" depart="266.03" from="-13685443#9" to="1253922946" departLane="best" type="bus_bus"/>
    <trip id="bus40" depart="272.85" from="11936870#0" to="526891182" departLane="best" type="bus_bus"/>
    <trip id="bus41" depart="279.67" from="515663231#0" to="-518078607#3" departLane="best" type="bus_bus" departSpeed="max"/>
    <trip id="bus42" depart="286.49" from="524496337#0" to="514981267#0" departLane="best" type="bus_bus" departSpeed="max"/>
    <trip id="bus43" depart="293.31" from="-447738486#4" to="172917699#2" departLane="best" type="bus_bus" departSpeed="max"/>
</routes>
