<?xml version="1.0" encoding="UTF-8"?>

<!-- generated on 2025-12-05 21:51:15.228274 by Eclipse SUMO osmWebWizard.py v1.25.0.post150
<configuration>
    <net-file value="/home/jeanhuit/Sumo/2025-12-05-21-50-47/osm.net.xml.gz"/>
    <output-trip-file value="/home/jeanhuit/Sumo/2025-12-05-21-50-47/osm.passenger.trips.xml"/>
    <route-file value="/home/jeanhuit/Sumo/2025-12-05-21-50-47/osm.passenger.rou.xml"/>
    <prefix value="veh"/>
    <trip-attributes value="departLane=&quot;best&quot;"/>
    <fringe-start-attributes value="departSpeed=&quot;max&quot;"/>
    <vehicle-class value="passenger"/>
    <lanes value="True"/>
    <fringe-factor value="15"/>
    <allow-fringe.min-length value="1000.0"/>
    <edge-permission value="passenger"/>
    <via-edge-types value="highway.motorway,highway.motorway_link,highway.trunk_link,highway.primary_link,highway.secondary_link,highway.tertiary_link"/>
    <seed value="43"/>
    <min-distance value="300.0"/>
    <min-distance.fringe value="10.0"/>
    <remove-loops value="True"/>
    <end value="300.0"/>
    <insertion-density value="12.0"/>
</configuration>
-->

<routes xmlns:xsi="http://www.w3.org/2001/XMLSchema-instance" xsi:noNamespaceSchemaLocation="http://sumo.dlr.de/xsd/routes_file.xsd">
    <vType id="veh_passenger" vClass="passenger"/>
    <trip id="veh0" depart="0.00" from="-1230759208#1" to="345891996" departLane="best" type="veh_passenger" departSpeed="max"/>
    <trip id="veh1" depart="2.27" from="-13686254#1" to="125989143#2" departLane="best" type="veh_passenger"/>
    <trip id="veh2" depart="4.55" from="345891993#0" to="448692882" departLane="best" type="veh_passenger"/>
    <trip id="veh3" depart="6.82" from="11691297#0" to="13506243#0" departLane="best" type="veh_passenger" departSpeed="max"/>
    <trip id="veh4" depart="9.09" from="-1111578984#1" to="1259152788#1" departLane="best" type="veh_passenger" departSpeed="max"/>
    <trip id="veh5" depart="11.37" from="13685647#2" to="447600244" departLane="best" type="veh_passenger"/>
    <trip id="veh6" depart="13.64" from="112738214#0" to="-362157722#1" departLane="best" type="veh_passenger" departSpeed="max"/>
    <trip id="veh7" depart="15.92" from="515142034" to="511770526#0" departLane="best" type="veh_passenger" departSpeed="max"/>
    <trip id="veh8" depart="18.19" from="-637206315#3" to="-13686416#1" departLane="best" type="veh_passenger" departSpeed="max"/>
    <trip id="veh9" depart="20.46" from="125989143#0" to="13503928" departLane="best" type="veh_passenger"/>
    <trip id="veh10" depart="22.74" from="5019322#3" to="155295971" departLane="best" type="veh_passenger"/>
    <trip id="veh11" depart="25.01" from="1259280539" to="1439354539" departLane="best" type="veh_passenger" departSpeed="max"/>
    <trip id="veh12" depart="27.28" from="-637206315#3" to="-13507291#0" departLane="best" type="veh_passenger" departSpeed="max"/>
    <trip id="veh13" depart="29.56" from="-1259152788#0" to="525669426#1" departLane="best" type="veh_passenger"/>
    <trip id="veh14" depart="31.83" from="514981229#1" to="1071928616#0" departLane="best" type="veh_passenger"/>
    <trip id="veh15" depart="34.11" from="518078608" to="13685772#5" departLane="best" type="veh_passenger"/>
    <trip id="veh16" depart="36.38" from="352410323#0" to="-13686358#6" departLane="best" type="veh_passenger"/>
    <trip id="veh17" depart="38.65" from="153007489#0" to="448565623#2" departLane="best" type="veh_passenger" departSpeed="max"/>
    <trip id="veh18" depart="40.93" from="522486265#2" to="1111578984#0" departLane="best" type="veh_passenger"/>
    <trip id="veh19" depart="43.20" from="13506243#1" to="352410323#0" departLane="best" type="veh_passenger"/>
    <trip id="veh20" depart="45.47" from="-153007489#3" to="514290535" departLane="best" type="veh_passenger" departSpeed="max"/>
    <trip id="veh21" depart="47.75" from="510503533#0" to="-13685166" departLane="best" type="veh_passenger" departSpeed="max"/>
    <trip id="veh22" depart="50.02" from="13686862#5" to="11691286" departLane="best" type="veh_passenger"/>
    <trip id="veh23" depart="52.30" from="-170825560" to="155295973#0" departLane="best" type="veh_passenger" departSpeed="max"/>
    <trip id="veh24" depart="54.57" from="609922107" to="13687399#0" departLane="best" type="veh_passenger" departSpeed="max"/>
    <trip id="veh25" depart="56.84" from="-13506243#0" to="13503928" departLane="best" type="veh_passenger"/>
    <trip id="veh26" depart="59.12" from="510503533#0" to="526891183" departLane="best" type="veh_passenger" departSpeed="max"/>
    <trip id="veh27" depart="61.39" from="447724481" to="-13506243#0" departLane="best" type="veh_passenger" departSpeed="max"/>
    <trip id="veh28" depart="63.66" from="609915761#1" to="155295971" departLane="best" type="veh_passenger"/>
    <trip id="veh29" depart="65.94" from="-1259294537" to="-172917699#2" departLane="best" type="veh_passenger" departSpeed="max"/>
    <trip id="veh30" depart="68.21" from="-13686591#3" to="511770526#0" departLane="best" type="veh_passenger"/>
    <trip id="veh31" depart="70.49" from="-13503928" to="13686358#5" departLane="best" type="veh_passenger" departSpeed="max"/>
    <trip id="veh32" depart="72.76" from="11691297#0" to="-13499977#1" departLane="best" type="veh_passenger" departSpeed="max"/>
    <trip id="veh33" depart="75.03" from="-1109043803" to="522486247#2" departLane="best" type="veh_passenger" departSpeed="max"/>
    <trip id="veh34" depart="77.31" from="447736656#2" to="666552969" departLane="best" type="veh_passenger"/>
    <trip id="veh35" depart="79.58" from="523043642#1" to="515459441" departLane="best" type="veh_passenger"/>
    <trip id="veh36" depart="81.85" from="-513986580" to="424279998" departLane="best" type="veh_passenger" departSpeed="max"/>
    <trip id="veh37" depart="84.13" from="1230759208#0" to="525451184#0" departLane="best" type="veh_passenger" departSpeed="max"/>
    <trip id="veh38" depart="86.40" from="447596314#0" to="513986580" departLane="best" type="veh_passenger"/>
    <trip id="veh39" depart="88.68" from="515402758#1" to="12209187#0" departLane="best" type="veh_passenger"/>
    <trip id="veh40" depart="90.95" from="447724481" to="-13686358#2" departLane="best" type="veh_passenger" departSpeed="max"/>
    <trip id="veh41" depart="93.22" from="-172917702" to="525451184#0" departLane="best" type="veh_passenger" departSpeed="max"/>
    <trip id="veh42" depart="95.50" from="11155713#0" to="345632655" departLane="best" type="veh_passenger" departSpeed="max"/>
    <trip id="veh43" depart="97.77" from="13686308" to="-583364994#1" departLane="best" type="veh_passenger"/>
    <trip id="veh44" depart="100.04" from="13686591#5" to="522486250#0" departLane="best" type="veh_passenger"/>
    <trip id="veh45" depart="102.32" from="-513986579" to="112738245#0" departLane="best" type="veh_passenger" departSpeed="max"/>
    <trip id="veh46" depart="104.59" from="-170825560" to="-379600565#3" departLane="best" type="veh_passenger" departSpeed="max"/>
    <trip id="veh47" depart="106.86" from="514454856#0" to="356777697" departLane="best" type="veh_passenger" departSpeed="max"/>
    <trip id="veh48" depart="109.14" from="583364998#0" to="318612416#1" departLane="best" type="veh_passenger"/>
    <trip id="veh49" depart="111.41" from="-170825560" to="-514981268#5" departLane="best" type="veh_passenger" departSpeed="max"/>
    <trip id="veh50" depart="113.69" from="-637255958#1" to="666552969" departLane="best" type="veh_passenger" departSpeed="max"/>
    <trip id="veh51" depart="115.96" from="-172917708" to="1259294537" departLane="best" type="veh_passenger" departSpeed="max"/>
    <trip id="veh52" depart="118.23" from="-1259152788#0" to="-123266665#5" departLane="best" type="veh_passenger"/>
    <trip id="veh53" depart="120.51" from="13685573#5" to="172917699#5" departLane="best" type="veh_passenger"/>
    <trip id="veh54" depart="122.78" from="1259280539" to="522486250#0" departLane="best" type="veh_passenger" departSpeed="max"/>
    <trip id="veh55" depart="125.05" from="13686358#7" to="-583364994#1" departLane="best" type="veh_passenger"/>
    <trip id="veh56" depart="127.33" from="-13686591#4" to="-11663192#2" departLane="best" type="veh_passenger"/>
    <trip id="veh57" depart="129.60" from="431382226#0" to="-153007489#0" departLane="best" type="veh_passenger"/>
    <trip id="veh58" depart="131.88" from="153007489#0" to="-448565623#1" departLane="best" type="veh_passenger" departSpeed="max"/>
    <trip id="veh59" depart="134.15" from="112738214#0" to="-11936576#2" departLane="best" type="veh_passenger" departSpeed="max"/>
    <trip id="veh60" depart="136.42" from="-637206315#3" to="1111578984#0" departLane="best" type="veh_passenger" departSpeed="max"/>
    <trip id="veh61" depart="138.70" from="-356777697" to="-172917705" departLane="best" type="veh_passenger" departSpeed="max"/>
    <trip id="veh62" depart="140.97" from="13686308" to="345891993#0" departLane="best" type="veh_passenger"/>
    <trip id="veh63" depart="143.24" from="-172917699#5" to="-13506243#0" departLane="best" type="veh_passenger" departSpeed="max"/>
    <trip id="veh64" depart="145.52" from="-362157722#1" to="345891996" departLane="best" type="veh_passenger"/>
    <trip id="veh65" depart="147.79" from="-424279998" to="172917708" departLane="best" type="veh_passenger" departSpeed="max"/>
    <trip id="veh66" depart="150.07" from="-1259199236" to="356777697" departLane="best" type="veh_passenger" departSpeed="max"/>
    <trip id="veh67" depart="152.34" from="186383236" to="-825933452" departLane="best" type="veh_passenger" departSpeed="max"/>
    <trip id="veh68" depart="154.61" from="320093195" to="1071928616#0" departLane="best" type="veh_passenger"/>
    <trip id="veh69" depart="156.89" from="12220107#0" to="1259199236" departLane="best" type="veh_passenger" departSpeed="max"/>
    <trip id="veh70" depart="159.16" from="13685736#1" to="513986580" departLane="best" type="veh_passenger"/>
    <trip id="veh71" depart="161.43" from="1429856611" to="424279998" departLane="best" type="veh_passenger"/>
    <trip id="veh72" depart="163.71" from="-172917703" to="524604558#4" departLane="best" type="veh_passenger" departSpeed="max"/>
    <trip id="veh73" depart="165.98" from="186383236" to="511770526#0" departLane="best" type="veh_passenger" departSpeed="max"/>
    <trip id="veh74" depart="168.26" from="1429856608" to="-1230759208#0" departLane="best" type="veh_passenger"/>
    <trip id="veh75" depart="170.53" from="-13503928" to="515402758#0" departLane="best" type="veh_passenger" departSpeed="max"/>
    <trip id="veh76" depart="172.80" from="431382230" to="522486247#2" departLane="best" type="veh_passenger"/>
    <trip id="veh77" depart="175.08" from="677471426#2" to="155295973#0" departLane="best" type="veh_passenger"/>
    <trip id="veh78" depart="177.35" from="447728026#3" to="13685647#1" departLane="best" type="veh_passenger"/>
    <trip id="veh79" depart="179.62" from="-345891996" to="13499977#2" departLane="best" type="veh_passenger" departSpeed="max"/>
    <trip id="veh80" depart="181.90" from="11936521#0" to="1071928616#0" departLane="best" type="veh_passenger" departSpeed="max"/>
    <trip id="veh81" depart="184.17" from="-514981268#5" to="1259199236" departLane="best" type="veh_passenger"/>
    <trip id="veh82" depart="186.44" from="-356777697" to="-186383236" departLane="best" type="veh_passenger" departSpeed="max"/>
    <trip id="veh83" depart="188.72" from="513672308#1" to="11663192#3" departLane="best" type="veh_passenger"/>
    <trip id="veh84" depart="190.99" from="-628301030#2" to="448565623#2" departLane="best" type="veh_passenger"/>
    <trip id="veh85" depart="193.27" from="426158379" to="1259292218" departLane="best" type="veh_passenger"/>
    <trip id="veh86" depart="195.54" from="-448565623#3" to="448869624" departLane="best" type="veh_passenger" departSpeed="max"/>
    <trip id="veh87" depart="197.81" from="-238046520#3" to="125989143#2" departLane="best" type="veh_passenger" departSpeed="max"/>
    <trip id="veh88" depart="200.09" from="-238046520#3" to="153007489#3" departLane="best" type="veh_passenger" departSpeed="max"/>
    <trip id="veh89" depart="202.36" from="13506243#0" to="-13507291#0" departLane="best" type="veh_passenger" departSpeed="max"/>
    <trip id="veh90" depart="204.63" from="-155295973#1" to="515654982" departLane="best" type="veh_passenger" departSpeed="max"/>
    <trip id="veh91" depart="206.91" from="510503535#0" to="-513676641" departLane="best" type="veh_passenger" departSpeed="max"/>
    <trip id="veh92" depart="209.18" from="-155295973#1" to="525596261" departLane="best" type="veh_passenger" departSpeed="max"/>
    <trip id="veh93" depart="211.46" from="13686856" to="424279994#5" departLane="best" type="veh_passenger"/>
    <trip id="veh94" depart="213.73" from="524496337#0" to="-583364994#1" departLane="best" type="veh_passenger" departSpeed="max"/>
    <trip id="veh95" depart="216.00" from="1230759208#0" to="522486250#0" departLane="best" type="veh_passenger" departSpeed="max"/>
    <trip id="veh96" depart="218.28" from="-170825560" to="-526590658#0" departLane="best" type="veh_passenger" departSpeed="max"/>
    <trip id="veh97" depart="220.55" from="125989143#6" to="-172917705" departLane="best" type="veh_passenger"/>
    <trip id="veh98" depart="222.82" from="514454856#0" to="1096884135#3" departLane="best" type="veh_passenger" departSpeed="max"/>
    <trip id="veh99" depart="225.10" from="448564836" to="-526590659" departLane="best" type="veh_passenger" departSpeed="max"/>
    <trip id="veh100" depart="227.37" from="-13686591#3" to="345891993#1" departLane="best" type="veh_passenger"/>
    <trip id="veh101" depart="229.65" from="1067222412" to="11691286" departLane="best" type="veh_passenger"/>
    <trip id="veh102" depart="231.92" from="11662794#3" to="1259294537" departLane="best" type="veh_passenger"/>
    <trip id="veh103" depart="234.19" from="-13503928" to="318612425#1" departLane="best" type="veh_passenger" departSpeed="max"/>
    <trip id="veh104" depart="236.47" from="12220107#0" to="511770526#0" departLane="best" type="veh_passenger" departSpeed="max"/>
    <trip id="veh105" depart="238.74" from="-426158534" to="318612415#0" departLane="best" type="veh_passenger" departSpeed="max"/>
    <trip id="veh106" depart="241.01" from="-172917702" to="345891996" departLane="best" type="veh_passenger" departSpeed="max"/>
    <trip id="veh107" depart="243.29" from="362157722#0" to="13686638#0" departLane="best" type="veh_passenger"/>
    <trip id="veh108" depart="245.56" from="12220107#0" to="525957751#0" departLane="best" type="veh_passenger" departSpeed="max"/>
    <trip id="veh109" depart="247.84" from="-526590658#0" to="-13685869#0" departLane="best" type="veh_passenger"/>
    <trip id="veh110" depart="250.11" from="-513986579" to="-13506243#0" departLane="best" type="veh_passenger" departSpeed="max"/>
    <trip id="veh111" depart="252.38" from="522486260#0" to="513672315#2" departLane="best" type="veh_passenger" departSpeed="max"/>
    <trip id="veh112" depart="254.66" from="-155295973#1" to="172917703" departLane="best" type="veh_passenger" departSpeed="max"/>
    <trip id="veh113" depart="256.93" from="-172917702" to="514875713#0" departLane="best" type="veh_passenger" departSpeed="max"/>
    <trip id="veh114" depart="259.20" from="11155713#0" to="-13685573#1" departLane="best" type="veh_passenger" departSpeed="max"/>
    <trip id="veh115" depart="261.48" from="172917710" to="-13685869#1" departLane="best" type="veh_passenger"/>
    <trip id="veh116" depart="263.75" from="522486260#0" to="524604557#1" departLane="best" type="veh_passenger" departSpeed="max"/>
    <trip id="veh117" depart="266.03" from="510493038#0" to="-13504575" departLane="best" type="veh_passenger"/>
    <trip id="veh118" depart="268.30" from="-13503928" to="1096884135#3" departLane="best" type="veh_passenger" departSpeed="max"/>
    <trip id="veh119" depart="270.57" from="-1259199236" to="514981259#0" departLane="best" type="veh_passenger" departSpeed="max"/>
    <trip id="veh120" depart="272.85" from="320093195" to="511770526#0" departLane="best" type="veh_passenger"/>
    <trip id="veh121" depart="275.12" from="-424279998" to="155295973#0" departLane="best" type="veh_passenger" departSpeed="max"/>
    <trip id="veh122" depart="277.39" from="510503535#0" to="172917702" departLane="best" type="veh_passenger" departSpeed="max"/>
    <trip id="veh123" depart="279.67" from="-448870864#0" to="5019318#0" departLane="best" type="veh_passenger"/>
    <trip id="veh124" depart="281.94" from="11155713#0" to="172917703" departLane="best" type="veh_passenger" departSpeed="max"/>
    <trip id="veh125" depart="284.21" from="515142034" to="238046520#2" departLane="best" type="veh_passenger" departSpeed="max"/>
    <trip id="veh126" depart="286.49" from="11936521#0" to="153007489#3" departLane="best" type="veh_passenger" departSpeed="max"/>
    <trip id="veh127" depart="288.76" from="-172917702" to="1259152788#2" departLane="best" type="veh_passenger" departSpeed="max"/>
    <trip id="veh128" depart="291.04" from="514454856#0" to="13499977#2" departLane="best" type="veh_passenger" departSpeed="max"/>
    <trip id="veh129" depart="293.31" from="-13686591#4" to="-1259280539" departLane="best" type="veh_passenger"/>
    <trip id="veh130" depart="295.58" from="13686358#7" to="447736656#0" departLane="best" type="veh_passenger"/>
    <trip id="veh131" depart="297.86" from="-13503928" to="1259199236" departLane="best" type="veh_passenger" departSpeed="max"/>
</routes>
